CRYSTAL
PRIMVEC
  3.904555   0.000000   0.000000
 -1.952278   3.381442   0.000000
  0.000000   0.000000   5.291772
PRIMCOORD
18 1
 6   0.000000   0.000000   0.000000
 5   1.301518   0.000000   0.000000
 5   2.603037   0.000000   0.000000
 5  -0.650759   1.127147   0.000000
 5   0.650759   1.127147   0.000000
 5   1.952278   1.127147   0.000000
 5  -1.301518   2.254295   0.000000
 5  -0.000000   2.254295   0.000000
 5   1.301518   2.254295   0.000000
 7   0.650733  -0.375678   0.000000
 7   1.952252  -0.375678   0.000000
 7   3.253770  -0.375678   0.000000
 7  -0.000026   0.751469   0.000000
 7   1.301492   0.751469   0.000000
 7   2.603011   0.751469   0.000000
 7  -0.650785   1.878617   0.000000
 7   0.650733   1.878617   0.000000
 7   1.952252   1.878617   0.000000
